Test Cases/dist_opf_case417.m
function [baseMVA,bus,busPmax,busPmin,busQmax,busQmin,busPG,busQG,gen,branch, PBase ,PFBase,busLoadImportant,w_gen] = dist_opf_case417
% DIST_OPF_CASE417 配网测试系统数据 (RTS79 标准格式)
% 自动提取自: 417-Node System Data.xlsx 和 Testbench

[PQ, PV, REF, BUS_I, BUS_TYPE, PD, QD, GS, BS, BUS_AREA, VM, ...
	VA, BASE_KV, VMAX, VMIN, PGMAX,PGMIN,QGMAX,QGMIN,PG,QG,LOLP,LOLE,LOLF,LOLD,EDNS,EENS,...
	LAM_P,LAM_Q,MU_VMAX,MU_VMIN,MU_PMAX,MU_PMIN,MU_QMAX,MU_QMIN] = idx_bus;
[GEN_BUS, GEN_PMAX, GEN_PMIN, GEN_QMAX, GEN_QMIN, GEN_STATUS, ...
	GEN_LAMDA,GEN_MTTF,GEN_PG,GEN_QG,GEN_PFAILURE] = idx_gen;
[F_BUS, T_BUS, BR_R, BR_X, BR_B, RATE, TAP, SHIFT_ANGLE, BR_STATUS, BR_LAMDA,...
	BR_MTTF,TCSC_X, BR_PFAILURE, PF, QF, PT, QT, MU_SF, MU_ST, KT_MAXANGLE_TPST,KT_MINANGLE_TPST,KT_MAX_X_TCSC,KT_MIN_X_TCSC] = idx_brch;
[NEWTON,FDFP_XB,FDFP_BX,DCPF] = idx_powerflow;

%% system MVA base
baseMVA = 100.0000;

%% bus data
bus = [
	1	1	169.7942	56.0321	0	0	1	1.0000	0	12.66	1.10	0.90;
	2	1	4.2425	1.4000	0	0	1	1.0000	0	12.66	1.10	0.90;
	3	1	222.8254	73.5324	0	0	1	1.0000	0	12.66	1.10	0.90;
	4	1	176.9591	58.3965	0	0	1	1.0000	0	12.66	1.10	0.90;
	5	1	104.4895	34.4815	0	0	1	1.0000	0	12.66	1.10	0.90;
	6	1	248.2128	81.9102	0	0	1	1.0000	0	12.66	1.10	0.90;
	7	1	217.2835	71.7036	0	0	1	1.0000	0	12.66	1.10	0.90;
	8	1	253.5254	83.6634	0	0	1	1.0000	0	12.66	1.10	0.90;
	9	1	46.7664	15.4329	0	0	1	1.0000	0	12.66	1.10	0.90;
	10	1	250.4525	82.6493	0	0	1	1.0000	0	12.66	1.10	0.90;
	11	1	228.0741	75.2645	0	0	1	1.0000	0	12.66	1.10	0.90;
	12	1	168.8824	55.7312	0	0	1	1.0000	0	12.66	1.10	0.90;
	13	1	144.7098	47.7542	0	0	1	1.0000	0	12.66	1.10	0.90;
	14	1	224.4131	74.0563	0	0	1	1.0000	0	12.66	1.10	0.90;
	15	1	99.5277	32.8441	0	0	1	1.0000	0	12.66	1.10	0.90;
	16	1	241.9966	79.8589	0	0	1	1.0000	0	12.66	1.10	0.90;
	17	1	50.8295	16.7737	0	0	1	1.0000	0	12.66	1.10	0.90;
	18	1	238.6996	78.7709	0	0	1	1.0000	0	12.66	1.10	0.90;
	19	1	98.2032	32.4070	0	0	1	1.0000	0	12.66	1.10	0.90;
	20	1	99.6824	32.8952	0	0	1	1.0000	0	12.66	1.10	0.90;
	21	1	81.3503	26.8456	0	0	1	1.0000	0	12.66	1.10	0.90;
	22	1	51.4725	16.9859	0	0	1	1.0000	0	12.66	1.10	0.90;
	23	1	160.9975	53.1292	0	0	1	1.0000	0	12.66	1.10	0.90;
	24	1	32.4726	10.7160	0	0	1	1.0000	0	12.66	1.10	0.90;
	25	1	15.3013	5.0494	0	0	1	1.0000	0	12.66	1.10	0.90;
	26	1	1.0265	0.3387	0	0	1	1.0000	0	12.66	1.10	0.90;
	27	1	27.1785	8.9689	0	0	1	1.0000	0	12.66	1.10	0.90;
	28	1	163.0249	53.7982	0	0	1	1.0000	0	12.66	1.10	0.90;
	29	1	203.4519	67.1391	0	0	1	1.0000	0	12.66	1.10	0.90;
	30	1	199.7928	65.9316	0	0	1	1.0000	0	12.66	1.10	0.90;
	31	1	76.8610	25.3641	0	0	1	1.0000	0	12.66	1.10	0.90;
	32	1	134.7871	44.4797	0	0	1	1.0000	0	12.66	1.10	0.90;
	33	1	156.8799	51.7704	0	0	1	1.0000	0	12.66	1.10	0.90;
	34	1	196.8605	64.9640	0	0	1	1.0000	0	12.66	1.10	0.90;
	35	1	156.6443	51.6926	0	0	1	1.0000	0	12.66	1.10	0.90;
	36	1	186.5532	61.5625	0	0	1	1.0000	0	12.66	1.10	0.90;
	37	1	142.0162	46.8654	0	0	1	1.0000	0	12.66	1.10	0.90;
	38	1	102.6422	33.8719	0	0	1	1.0000	0	12.66	1.10	0.90;
	39	1	162.4298	53.6018	0	0	1	1.0000	0	12.66	1.10	0.90;
	40	1	197.7084	65.2438	0	0	1	1.0000	0	12.66	1.10	0.90;
	41	1	219.7090	72.5040	0	0	1	1.0000	0	12.66	1.10	0.90;
	42	1	110.2947	36.3972	0	0	1	1.0000	0	12.66	1.10	0.90;
	43	1	100.0828	33.0273	0	0	1	1.0000	0	12.66	1.10	0.90;
	44	1	147.7025	48.7418	0	0	1	1.0000	0	12.66	1.10	0.90;
	45	1	236.7646	78.1323	0	0	1	1.0000	0	12.66	1.10	0.90;
	46	1	60.8748	20.0887	0	0	1	1.0000	0	12.66	1.10	0.90;
	47	1	166.1712	54.8365	0	0	1	1.0000	0	12.66	1.10	0.90;
	48	1	218.8121	72.2080	0	0	1	1.0000	0	12.66	1.10	0.90;
	49	1	210.1594	69.3526	0	0	1	1.0000	0	12.66	1.10	0.90;
	50	1	93.9005	30.9872	0	0	1	1.0000	0	12.66	1.10	0.90;
	51	1	187.1089	61.7459	0	0	1	1.0000	0	12.66	1.10	0.90;
	52	1	16.2245	5.3541	0	0	1	1.0000	0	12.66	1.10	0.90;
	53	1	155.7047	51.3826	0	0	1	1.0000	0	12.66	1.10	0.90;
	54	1	53.5143	17.6597	0	0	1	1.0000	0	12.66	1.10	0.90;
	55	1	200.8476	66.2797	0	0	1	1.0000	0	12.66	1.10	0.90;
	56	1	216.3488	71.3951	0	0	1	1.0000	0	12.66	1.10	0.90;
	57	1	101.1837	33.3906	0	0	1	1.0000	0	12.66	1.10	0.90;
	58	1	60.8960	20.0957	0	0	1	1.0000	0	12.66	1.10	0.90;
	59	1	89.0072	29.3724	0	0	1	1.0000	0	12.66	1.10	0.90;
	60	1	79.4674	26.2242	0	0	1	1.0000	0	12.66	1.10	0.90;
	61	1	207.3537	68.4267	0	0	1	1.0000	0	12.66	1.10	0.90;
	62	1	263.9212	87.0940	0	0	1	1.0000	0	12.66	1.10	0.90;
	63	1	199.8949	65.9653	0	0	1	1.0000	0	12.66	1.10	0.90;
	64	1	169.4595	55.9216	0	0	1	1.0000	0	12.66	1.10	0.90;
	65	1	199.8092	65.9370	0	0	1	1.0000	0	12.66	1.10	0.90;
	66	1	198.9011	65.6374	0	0	1	1.0000	0	12.66	1.10	0.90;
	67	1	112.5912	37.1551	0	0	1	1.0000	0	12.66	1.10	0.90;
	68	1	98.5298	32.5148	0	0	1	1.0000	0	12.66	1.10	0.90;
	69	1	17.8561	5.8925	0	0	1	1.0000	0	12.66	1.10	0.90;
	70	1	120.0321	39.6106	0	0	1	1.0000	0	12.66	1.10	0.90;
	71	1	70.9798	23.4233	0	0	1	1.0000	0	12.66	1.10	0.90;
	72	1	252.4527	83.3094	0	0	1	1.0000	0	12.66	1.10	0.90;
	73	1	181.9695	60.0499	0	0	1	1.0000	0	12.66	1.10	0.90;
	74	1	236.5581	78.0642	0	0	1	1.0000	0	12.66	1.10	0.90;
	75	1	125.5138	41.4196	0	0	1	1.0000	0	12.66	1.10	0.90;
	76	1	189.5212	62.5420	0	0	1	1.0000	0	12.66	1.10	0.90;
	77	1	57.8589	19.0934	0	0	1	1.0000	0	12.66	1.10	0.90;
	78	1	214.4081	70.7547	0	0	1	1.0000	0	12.66	1.10	0.90;
	79	1	36.9157	12.1822	0	0	1	1.0000	0	12.66	1.10	0.90;
	80	1	153.6468	50.7035	0	0	1	1.0000	0	12.66	1.10	0.90;
	81	1	204.0334	67.3310	0	0	1	1.0000	0	12.66	1.10	0.90;
	82	1	82.5551	27.2432	0	0	1	1.0000	0	12.66	1.10	0.90;
	83	1	152.4272	50.3010	0	0	1	1.0000	0	12.66	1.10	0.90;
	84	1	31.3921	10.3594	0	0	1	1.0000	0	12.66	1.10	0.90;
	85	1	101.9287	33.6365	0	0	1	1.0000	0	12.66	1.10	0.90;
	86	1	240.9822	79.5241	0	0	1	1.0000	0	12.66	1.10	0.90;
	87	1	223.4441	73.7365	0	0	1	1.0000	0	12.66	1.10	0.90;
	88	1	127.1657	41.9647	0	0	1	1.0000	0	12.66	1.10	0.90;
	89	1	231.8570	76.5128	0	0	1	1.0000	0	12.66	1.10	0.90;
	90	1	91.6298	30.2378	0	0	1	1.0000	0	12.66	1.10	0.90;
	91	1	255.9608	84.4671	0	0	1	1.0000	0	12.66	1.10	0.90;
	92	1	203.6506	67.2047	0	0	1	1.0000	0	12.66	1.10	0.90;
	93	1	166.5742	54.9695	0	0	1	1.0000	0	12.66	1.10	0.90;
	94	1	192.5868	63.5536	0	0	1	1.0000	0	12.66	1.10	0.90;
	95	1	16.4997	5.4449	0	0	1	1.0000	0	12.66	1.10	0.90;
	96	1	258.1535	85.1906	0	0	1	1.0000	0	12.66	1.10	0.90;
	97	1	235.5783	77.7408	0	0	1	1.0000	0	12.66	1.10	0.90;
	98	1	41.9666	13.8490	0	0	1	1.0000	0	12.66	1.10	0.90;
	99	1	150.9366	49.8091	0	0	1	1.0000	0	12.66	1.10	0.90;
	100	1	80.1397	26.4461	0	0	1	1.0000	0	12.66	1.10	0.90;
	101	1	195.4172	64.4877	0	0	1	1.0000	0	12.66	1.10	0.90;
	102	1	177.0379	58.4225	0	0	1	1.0000	0	12.66	1.10	0.90;
	103	1	120.3913	39.7291	0	0	1	1.0000	0	12.66	1.10	0.90;
	104	1	7.2509	2.3928	0	0	1	1.0000	0	12.66	1.10	0.90;
	105	1	136.5855	45.0732	0	0	1	1.0000	0	12.66	1.10	0.90;
	106	1	240.3251	79.3073	0	0	1	1.0000	0	12.66	1.10	0.90;
	107	1	120.4776	39.7576	0	0	1	1.0000	0	12.66	1.10	0.90;
	108	1	57.8458	19.0891	0	0	1	1.0000	0	12.66	1.10	0.90;
	109	1	269.9159	89.0722	0	0	1	1.0000	0	12.66	1.10	0.90;
	110	1	244.9890	80.8464	0	0	1	1.0000	0	12.66	1.10	0.90;
	111	1	138.9916	45.8672	0	0	1	1.0000	0	12.66	1.10	0.90;
	112	1	195.6896	64.5776	0	0	1	1.0000	0	12.66	1.10	0.90;
	113	1	128.9300	42.5469	0	0	1	1.0000	0	12.66	1.10	0.90;
	114	1	35.3781	11.6748	0	0	1	1.0000	0	12.66	1.10	0.90;
	115	1	209.5887	69.1643	0	0	1	1.0000	0	12.66	1.10	0.90;
	116	1	39.8106	13.1375	0	0	1	1.0000	0	12.66	1.10	0.90;
	117	1	7.8489	2.5901	0	0	1	1.0000	0	12.66	1.10	0.90;
	118	1	71.7078	23.6636	0	0	1	1.0000	0	12.66	1.10	0.90;
	119	1	25.4023	8.3828	0	0	1	1.0000	0	12.66	1.10	0.90;
	120	1	47.8343	15.7853	0	0	1	1.0000	0	12.66	1.10	0.90;
	121	1	234.7424	77.4650	0	0	1	1.0000	0	12.66	1.10	0.90;
	122	1	66.2797	21.8723	0	0	1	1.0000	0	12.66	1.10	0.90;
	123	1	107.4463	35.4573	0	0	1	1.0000	0	12.66	1.10	0.90;
	124	1	184.1465	60.7683	0	0	1	1.0000	0	12.66	1.10	0.90;
	125	1	173.6193	57.2944	0	0	1	1.0000	0	12.66	1.10	0.90;
	126	1	90.3757	29.8240	0	0	1	1.0000	0	12.66	1.10	0.90;
	127	1	177.6794	58.6342	0	0	1	1.0000	0	12.66	1.10	0.90;
	128	1	274.2801	90.5124	0	0	1	1.0000	0	12.66	1.10	0.90;
	129	1	20.3750	6.7237	0	0	1	1.0000	0	12.66	1.10	0.90;
	130	1	91.4693	30.1849	0	0	1	1.0000	0	12.66	1.10	0.90;
	131	1	227.4868	75.0706	0	0	1	1.0000	0	12.66	1.10	0.90;
	132	1	145.8119	48.1179	0	0	1	1.0000	0	12.66	1.10	0.90;
	133	1	273.6887	90.3173	0	0	1	1.0000	0	12.66	1.10	0.90;
	134	1	114.9355	37.9287	0	0	1	1.0000	0	12.66	1.10	0.90;
	135	1	224.9389	74.2298	0	0	1	1.0000	0	12.66	1.10	0.90;
	136	1	28.8414	9.5177	0	0	1	1.0000	0	12.66	1.10	0.90;
	137	1	260.2213	85.8730	0	0	1	1.0000	0	12.66	1.10	0.90;
	138	1	123.8672	40.8762	0	0	1	1.0000	0	12.66	1.10	0.90;
	139	1	233.7566	77.1397	0	0	1	1.0000	0	12.66	1.10	0.90;
	140	1	196.7768	64.9363	0	0	1	1.0000	0	12.66	1.10	0.90;
	141	1	265.3815	87.5759	0	0	1	1.0000	0	12.66	1.10	0.90;
	142	1	36.7406	12.1244	0	0	1	1.0000	0	12.66	1.10	0.90;
	143	1	126.0025	41.5808	0	0	1	1.0000	0	12.66	1.10	0.90;
	144	1	90.6209	29.9049	0	0	1	1.0000	0	12.66	1.10	0.90;
	145	1	194.9152	64.3220	0	0	1	1.0000	0	12.66	1.10	0.90;
	146	1	184.7226	60.9585	0	0	1	1.0000	0	12.66	1.10	0.90;
	147	1	71.4483	23.5779	0	0	1	1.0000	0	12.66	1.10	0.90;
	148	1	145.0530	47.8675	0	0	1	1.0000	0	12.66	1.10	0.90;
	149	1	148.2459	48.9211	0	0	1	1.0000	0	12.66	1.10	0.90;
	150	1	201.6111	66.5317	0	0	1	1.0000	0	12.66	1.10	0.90;
	151	1	206.5382	68.1576	0	0	1	1.0000	0	12.66	1.10	0.90;
	152	1	180.3414	59.5126	0	0	1	1.0000	0	12.66	1.10	0.90;
	153	1	264.9500	87.4335	0	0	1	1.0000	0	12.66	1.10	0.90;
	154	1	40.1749	13.2577	0	0	1	1.0000	0	12.66	1.10	0.90;
	155	1	205.9555	67.9653	0	0	1	1.0000	0	12.66	1.10	0.90;
	156	1	271.7720	89.6847	0	0	1	1.0000	0	12.66	1.10	0.90;
	157	1	243.6360	80.3999	0	0	1	1.0000	0	12.66	1.10	0.90;
	158	1	156.4049	51.6136	0	0	1	1.0000	0	12.66	1.10	0.90;
	159	1	150.6607	49.7180	0	0	1	1.0000	0	12.66	1.10	0.90;
	160	1	259.8262	85.7426	0	0	1	1.0000	0	12.66	1.10	0.90;
	161	1	275.4438	90.8964	0	0	1	1.0000	0	12.66	1.10	0.90;
	162	1	108.2430	35.7202	0	0	1	1.0000	0	12.66	1.10	0.90;
	163	1	121.5287	40.1045	0	0	1	1.0000	0	12.66	1.10	0.90;
	164	1	268.9952	88.7684	0	0	1	1.0000	0	12.66	1.10	0.90;
	165	1	180.2164	59.4714	0	0	1	1.0000	0	12.66	1.10	0.90;
	166	1	13.2131	4.3603	0	0	1	1.0000	0	12.66	1.10	0.90;
	167	1	76.5484	25.2610	0	0	1	1.0000	0	12.66	1.10	0.90;
	168	1	160.3254	52.9074	0	0	1	1.0000	0	12.66	1.10	0.90;
	169	1	11.2985	3.7285	0	0	1	1.0000	0	12.66	1.10	0.90;
	170	1	101.1256	33.3714	0	0	1	1.0000	0	12.66	1.10	0.90;
	171	1	170.9848	56.4250	0	0	1	1.0000	0	12.66	1.10	0.90;
	172	1	4.1487	1.3691	0	0	1	1.0000	0	12.66	1.10	0.90;
	173	1	81.3834	26.8565	0	0	1	1.0000	0	12.66	1.10	0.90;
	174	1	86.8644	28.6652	0	0	1	1.0000	0	12.66	1.10	0.90;
	175	1	59.7024	19.7018	0	0	1	1.0000	0	12.66	1.10	0.90;
	176	1	144.8298	47.7938	0	0	1	1.0000	0	12.66	1.10	0.90;
	177	1	211.2608	69.7161	0	0	1	1.0000	0	12.66	1.10	0.90;
	178	1	168.5268	55.6138	0	0	1	1.0000	0	12.66	1.10	0.90;
	179	1	112.9274	37.2660	0	0	1	1.0000	0	12.66	1.10	0.90;
	180	1	32.5319	10.7355	0	0	1	1.0000	0	12.66	1.10	0.90;
	181	1	227.9182	75.2130	0	0	1	1.0000	0	12.66	1.10	0.90;
	182	1	168.0025	55.4408	0	0	1	1.0000	0	12.66	1.10	0.90;
	183	1	168.8893	55.7335	0	0	1	1.0000	0	12.66	1.10	0.90;
	184	1	155.2186	51.2221	0	0	1	1.0000	0	12.66	1.10	0.90;
	185	1	106.5831	35.1724	0	0	1	1.0000	0	12.66	1.10	0.90;
	186	1	47.0516	15.5270	0	0	1	1.0000	0	12.66	1.10	0.90;
	187	1	199.2763	65.7612	0	0	1	1.0000	0	12.66	1.10	0.90;
	188	1	259.4078	85.6046	0	0	1	1.0000	0	12.66	1.10	0.90;
	189	1	231.5865	76.4235	0	0	1	1.0000	0	12.66	1.10	0.90;
	190	1	174.2850	57.5140	0	0	1	1.0000	0	12.66	1.10	0.90;
	191	1	104.2467	34.4014	0	0	1	1.0000	0	12.66	1.10	0.90;
	192	1	53.5428	17.6691	0	0	1	1.0000	0	12.66	1.10	0.90;
	193	1	230.2514	75.9830	0	0	1	1.0000	0	12.66	1.10	0.90;
	194	1	123.2958	40.6876	0	0	1	1.0000	0	12.66	1.10	0.90;
	195	1	138.8267	45.8128	0	0	1	1.0000	0	12.66	1.10	0.90;
	196	1	129.0343	42.5813	0	0	1	1.0000	0	12.66	1.10	0.90;
	197	1	222.8048	73.5256	0	0	1	1.0000	0	12.66	1.10	0.90;
	198	1	184.1564	60.7716	0	0	1	1.0000	0	12.66	1.10	0.90;
	199	1	120.8302	39.8740	0	0	1	1.0000	0	12.66	1.10	0.90;
	200	1	147.7783	48.7669	0	0	1	1.0000	0	12.66	1.10	0.90;
...
];

%% Bus Load Importance Data
busLoadImportant = [
	1	0.7000	0.8300	1.0000;
	2	0.7000	0.8300	1.0000;
	3	0.7000	0.8300	1.0000;
	4	0.7000	0.8300	1.0000;
	5	0.7000	0.8300	1.0000;
	6	0.7000	0.8300	1.0000;
	7	0.7000	0.8300	1.0000;
	8	0.7000	0.8300	1.0000;
	9	0.7000	0.8300	1.0000;
	10	0.7000	0.8300	1.0000;
	11	0.7000	0.8300	1.0000;
	12	0.7000	0.8300	1.0000;
	13	0.7000	0.8300	1.0000;
	14	0.7000	0.8300	1.0000;
	15	0.7000	0.8300	1.0000;
	16	0.7000	0.8300	1.0000;
	17	0.7000	0.8300	1.0000;
	18	0.7000	0.8300	1.0000;
	19	0.7000	0.8300	1.0000;
	20	0.7000	0.8300	1.0000;
	21	0.7000	0.8300	1.0000;
	22	0.7000	0.8300	1.0000;
	23	0.7000	0.8300	1.0000;
	24	0.7000	0.8300	1.0000;
	25	0.7000	0.8300	1.0000;
	26	0.7000	0.8300	1.0000;
	27	0.7000	0.8300	1.0000;
	28	0.7000	0.8300	1.0000;
	29	0.7000	0.8300	1.0000;
	30	0.7000	0.8300	1.0000;
	31	0.7000	0.8300	1.0000;
	32	0.7000	0.8300	1.0000;
	33	0.7000	0.8300	1.0000;
	34	0.7000	0.8300	1.0000;
	35	0.7000	0.8300	1.0000;
	36	0.7000	0.8300	1.0000;
	37	0.7000	0.8300	1.0000;
	38	0.7000	0.8300	1.0000;
	39	0.7000	0.8300	1.0000;
	40	0.7000	0.8300	1.0000;
	41	0.7000	0.8300	1.0000;
	42	0.7000	0.8300	1.0000;
	43	0.7000	0.8300	1.0000;
	44	0.7000	0.8300	1.0000;
	45	0.7000	0.8300	1.0000;
	46	0.7000	0.8300	1.0000;
	47	0.7000	0.8300	1.0000;
	48	0.7000	0.8300	1.0000;
	49	0.7000	0.8300	1.0000;
	50	0.7000	0.8300	1.0000;
	51	0.7000	0.8300	1.0000;
	52	0.7000	0.8300	1.0000;
	53	0.7000	0.8300	1.0000;
	54	0.7000	0.8300	1.0000;
	55	0.7000	0.8300	1.0000;
	56	0.7000	0.8300	1.0000;
	57	0.7000	0.8300	1.0000;
	58	0.7000	0.8300	1.0000;
	59	0.7000	0.8300	1.0000;
	60	0.7000	0.8300	1.0000;
	61	0.7000	0.8300	1.0000;
	62	0.7000	0.8300	1.0000;
	63	0.7000	0.8300	1.0000;
	64	0.7000	0.8300	1.0000;
	65	0.7000	0.8300	1.0000;
	66	0.7000	0.8300	1.0000;
	67	0.7000	0.8300	1.0000;
	68	0.7000	0.8300	1.0000;
	69	0.7000	0.8300	1.0000;
	70	0.7000	0.8300	1.0000;
	71	0.7000	0.8300	1.0000;
	72	0.7000	0.8300	1.0000;
	73	0.7000	0.8300	1.0000;
	74	0.7000	0.8300	1.0000;
	75	0.7000	0.8300	1.0000;
	76	0.7000	0.8300	1.0000;
	77	0.7000	0.8300	1.0000;
	78	0.7000	0.8300	1.0000;
	79	0.7000	0.8300	1.0000;
	80	0.7000	0.8300	1.0000;
	81	0.7000	0.8300	1.0000;
	82	0.7000	0.8300	1.0000;
	83	0.7000	0.8300	1.0000;
	84	0.7000	0.8300	1.0000;
	85	0.7000	0.8300	1.0000;
	86	0.7000	0.8300	1.0000;
	87	0.7000	0.8300	1.0000;
	88	0.7000	0.8300	1.0000;
	89	0.7000	0.8300	1.0000;
	90	0.7000	0.8300	1.0000;
	91	0.7000	0.8300	1.0000;
	92	0.7000	0.8300	1.0000;
	93	0.7000	0.8300	1.0000;
	94	0.7000	0.8300	1.0000;
	95	0.7000	0.8300	1.0000;
	96	0.7000	0.8300	1.0000;
	97	0.7000	0.8300	1.0000;
	98	0.7000	0.8300	1.0000;
	99	0.7000	0.8300	1.0000;
	100	0.7000	0.8300	1.0000;
	101	0.7000	0.8300	1.0000;
	102	0.7000	0.8300	1.0000;
	103	0.7000	0.8300	1.0000;
	104	0.7000	0.8300	1.0000;
	105	0.7000	0.8300	1.0000;
	106	0.7000	0.8300	1.0000;
	107	0.7000	0.8300	1.0000;
	108	0.7000	0.8300	1.0000;
	109	0.7000	0.8300	1.0000;
	110	0.7000	0.8300	1.0000;
	111	0.7000	0.8300	1.0000;
	112	0.7000	0.8300	1.0000;
	113	0.7000	0.8300	1.0000;
	114	0.7000	0.8300	1.0000;
	115	0.7000	0.8300	1.0000;
	116	0.7000	0.8300	1.0000;
	117	0.7000	0.8300	1.0000;
	118	0.7000	0.8300	1.0000;
	119	0.7000	0.8300	1.0000;
	120	0.7000	0.8300	1.0000;
	121	0.7000	0.8300	1.0000;
	122	0.7000	0.8300	1.0000;
	123	0.7000	0.8300	1.0000;
	124	0.7000	0.8300	1.0000;
	125	0.7000	0.8300	1.0000;
	126	0.7000	0.8300	1.0000;
	127	0.7000	0.8300	1.0000;
	128	0.7000	0.8300	1.0000;
	129	0.7000	0.8300	1.0000;
	130	0.7000	0.8300	1.0000;
	131	0.7000	0.8300	1.0000;
	132	0.7000	0.8300	1.0000;
	133	0.7000	0.8300	1.0000;
	134	0.7000	0.8300	1.0000;
	135	0.7000	0.8300	1.0000;
	136	0.7000	0.8300	1.0000;
	137	0.7000	0.8300	1.0000;
	138	0.7000	0.8300	1.0000;
	139	0.7000	0.8300	1.0000;
	140	0.7000	0.8300	1.0000;
	141	0.7000	0.8300	1.0000;
	142	0.7000	0.8300	1.0000;
	143	0.7000	0.8300	1.0000;
	144	0.7000	0.8300	1.0000;
	145	0.7000	0.8300	1.0000;
	146	0.7000	0.8300	1.0000;
	147	0.7000	0.8300	1.0000;
	148	0.7000	0.8300	1.0000;
	149	0.7000	0.8300	1.0000;
	150	0.7000	0.8300	1.0000;
	151	0.7000	0.8300	1.0000;
	152	0.7000	0.8300	1.0000;
	153	0.7000	0.8300	1.0000;
	154	0.7000	0.8300	1.0000;
	155	0.7000	0.8300	1.0000;
	156	0.7000	0.8300	1.0000;
	157	0.7000	0.8300	1.0000;
	158	0.7000	0.8300	1.0000;
	159	0.7000	0.8300	1.0000;
	160	0.7000	0.8300	1.0000;
	161	0.7000	0.8300	1.0000;
	162	0.7000	0.8300	1.0000;
	163	0.7000	0.8300	1.0000;
	164	0.7000	0.8300	1.0000;
	165	0.7000	0.8300	1.0000;
	166	0.7000	0.8300	1.0000;
	167	0.7000	0.8300	1.0000;
	168	0.7000	0.8300	1.0000;
	169	0.7000	0.8300	1.0000;
	170	0.7000	0.8300	1.0000;
	171	0.7000	0.8300	1.0000;
	172	0.7000	0.8300	1.0000;
	173	0.7000	0.8300	1.0000;
	174	0.7000	0.8300	1.0000;
	175	0.7000	0.8300	1.0000;
	176	0.7000	0.8300	1.0000;
	177	0.7000	0.8300	1.0000;
	178	0.7000	0.8300	1.0000;
	179	0.7000	0.8300	1.0000;
	180	0.7000	0.8300	1.0000;
	181	0.7000	0.8300	1.0000;
	182	0.7000	0.8300	1.0000;
	183	0.7000	0.8300	1.0000;
	184	0.7000	0.8300	1.0000;
	185	0.7000	0.8300	1.0000;
	186	0.7000	0.8300	1.0000;
	187	0.7000	0.8300	1.0000;
	188	0.7000	0.8300	1.0000;
	189	0.7000	0.8300	1.0000;
	190	0.7000	0.8300	1.0000;
	191	0.7000	0.8300	1.0000;
	192	0.7000	0.8300	1.0000;
	193	0.7000	0.8300	1.0000;
	194	0.7000	0.8300	1.0000;
	195	0.7000	0.8300	1.0000;
	196	0.7000	0.8300	1.0000;
	197	0.7000	0.8300	1.0000;
	198	0.7000	0.8300	1.0000;
	199	0.7000	0.8300	1.0000;
	200	0.7000	0.8300	1.0000;
...
];

%% generator data
gen = [
	415	100.0000	0.0000	100.0000	-100.0000	1	0.4500	15.0000	0	0	0	0	0	0	0	0	0	0	0	0	0;
    416	100.0000	0.0000	100.0000	-100.0000	1	0.4500	15.0000	0	0	0	0	0	0	0	0	0	0	0	0	0;
	417	100.0000	0.0000	100.0000	-100.0000	1	0.4500	15.0000	0	0	0	0	0	0	0	0	0	0	0	0	0;
];

%% branch data (包含主线路及联络线)
branch = [
	67	383	0.050000	0.020000	0.0000	20.0	0.0000	0.0000	1	0.02621	2.4335	0.0000;
	383	65	0.050000	0.020000	0.0000	20.0	0.0000	0.0000	1	0.02537	1.7631	0.0000;
	381	69	0.050000	0.020000	0.0000	20.0	0.0000	0.0000	1	0.02462	2.3670	0.0000;
	65	381	0.050000	0.020000	0.0000	20.0	0.0000	0.0000	1	0.04854	2.0750	0.0000;
	69	58	0.050000	0.020000	0.0000	20.0	0.0000	0.0000	1	0.03686	2.1676	0.0000;
	84	67	0.050000	0.020000	0.0000	20.0	0.0000	0.0000	1	0.05241	1.7580	0.0000;
	67	92	0.050000	0.020000	0.0000	20.0	0.0000	0.0000	1	0.02334	1.7761	0.0000;
	59	57	0.050000	0.020000	0.0000	20.0	0.0000	0.0000	1	0.04496	2.2285	0.0000;
	64	70	0.050000	0.020000	0.0000	20.0	0.0000	0.0000	1	0.03595	1.9653	0.0000;
	68	64	0.050000	0.020000	0.0000	20.0	0.0000	0.0000	1	0.03176	2.2762	0.0000;
	58	68	0.050000	0.020000	0.0000	20.0	0.0000	0.0000	1	0.01313	1.6916	0.0000;
	62	60	0.050000	0.020000	0.0000	20.0	0.0000	0.0000	1	0.01295	2.0373	0.0000;
	70	62	0.050000	0.020000	0.0000	20.0	0.0000	0.0000	1	0.03876	2.2416	0.0000;
	60	59	0.050000	0.020000	0.0000	20.0	0.0000	0.0000	1	0.03805	2.2931	0.0000;
	66	63	0.050000	0.020000	0.0000	20.0	0.0000	0.0000	1	0.02458	2.2301	0.0000;
	67	66	0.050000	0.020000	0.0000	20.0	0.0000	0.0000	1	0.01477	1.6342	0.0000;
	63	61	0.050000	0.020000	0.0000	20.0	0.0000	0.0000	1	0.03990	1.5842	0.0000;
	417	91	0.050000	0.020000	0.0000	20.0	0.0000	0.0000	1	0.02826	2.0270	0.0000;
	91	1	0.050000	0.020000	0.0000	20.0	0.0000	0.0000	1	0.03634	2.4292	0.0000;
	91	86	0.050000	0.020000	0.0000	20.0	0.0000	0.0000	1	0.01508	1.6533	0.0000;
	1	16	0.050000	0.020000	0.0000	20.0	0.0000	0.0000	1	0.04699	1.6661	0.0000;
	6	5	0.050000	0.020000	0.0000	20.0	0.0000	0.0000	1	0.02729	1.9302	0.0000;
	2	6	0.050000	0.020000	0.0000	20.0	0.0000	0.0000	1	0.03032	1.5810	0.0000;
	5	4	0.050000	0.020000	0.0000	20.0	0.0000	0.0000	1	0.02106	2.1839	0.0000;
	16	17	0.050000	0.020000	0.0000	20.0	0.0000	0.0000	1	0.04098	1.5829	0.0000;
	1	13	0.050000	0.020000	0.0000	20.0	0.0000	0.0000	1	0.01118	2.1450	0.0000;
	8	7	0.050000	0.020000	0.0000	20.0	0.0000	0.0000	1	0.04940	1.7506	0.0000;
	2	8	0.050000	0.020000	0.0000	20.0	0.0000	0.0000	1	0.02572	2.0417	0.0000;
	7	18	0.050000	0.020000	0.0000	20.0	0.0000	0.0000	1	0.03903	2.1602	0.0000;
	13	15	0.050000	0.020000	0.0000	20.0	0.0000	0.0000	1	0.01921	1.8251	0.0000;
	1	12	0.050000	0.020000	0.0000	20.0	0.0000	0.0000	1	0.03707	2.4848	0.0000;
	3	11	0.050000	0.020000	0.0000	20.0	0.0000	0.0000	1	0.02065	1.6280	0.0000;
	11	14	0.050000	0.020000	0.0000	20.0	0.0000	0.0000	1	0.05860	1.8594	0.0000;
	14	10	0.050000	0.020000	0.0000	20.0	0.0000	0.0000	1	0.01513	2.2106	0.0000;
	12	3	0.050000	0.020000	0.0000	20.0	0.0000	0.0000	1	0.02815	1.5998	0.0000;
	10	85	0.050000	0.020000	0.0000	20.0	0.0000	0.0000	1	0.02476	1.6872	0.0000;
	85	90	0.050000	0.020000	0.0000	20.0	0.0000	0.0000	1	0.04229	2.3244	0.0000;
	10	9	0.050000	0.020000	0.0000	20.0	0.0000	0.0000	1	0.01289	2.1989	0.0000;
	9	2	0.050000	0.020000	0.0000	20.0	0.0000	0.0000	1	0.04742	1.8030	0.0000;
	9	87	0.050000	0.020000	0.0000	20.0	0.0000	0.0000	1	0.04633	1.6446	0.0000;
	87	88	0.050000	0.020000	0.0000	20.0	0.0000	0.0000	1	0.04198	2.3560	0.0000;
	101	98	0.050000	0.020000	0.0000	20.0	0.0000	0.0000	1	0.04512	2.3507	0.0000;
	116	95	0.050000	0.020000	0.0000	20.0	0.0000	0.0000	1	0.01013	1.8671	0.0000;
	96	116	0.050000	0.020000	0.0000	20.0	0.0000	0.0000	1	0.01853	1.6986	0.0000;
	93	97	0.050000	0.020000	0.0000	20.0	0.0000	0.0000	1	0.05238	2.3106	0.0000;
	97	115	0.050000	0.020000	0.0000	20.0	0.0000	0.0000	1	0.03587	2.2219	0.0000;
	140	152	0.050000	0.020000	0.0000	20.0	0.0000	0.0000	1	0.01034	1.9762	0.0000;
	141	146	0.050000	0.020000	0.0000	20.0	0.0000	0.0000	1	0.03693	1.5208	0.0000;
	135	141	0.050000	0.020000	0.0000	20.0	0.0000	0.0000	1	0.01668	1.7503	0.0000;
	152	131	0.050000	0.020000	0.0000	20.0	0.0000	0.0000	1	0.02789	2.0878	0.0000;
	131	135	0.050000	0.020000	0.0000	20.0	0.0000	0.0000	1	0.02030	2.3931	0.0000;
	148	56	0.050000	0.020000	0.0000	20.0	0.0000	0.0000	1	0.04543	1.7701	0.0000;
	56	124	0.050000	0.020000	0.0000	20.0	0.0000	0.0000	1	0.02963	1.6255	0.0000;
	123	126	0.050000	0.020000	0.0000	20.0	0.0000	0.0000	1	0.05306	1.6235	0.0000;
	124	127	0.050000	0.020000	0.0000	20.0	0.0000	0.0000	1	0.05399	2.3033	0.0000;
	118	199	0.050000	0.020000	0.0000	20.0	0.0000	0.0000	1	0.01898	2.3162	0.0000;
	199	200	0.050000	0.020000	0.0000	20.0	0.0000	0.0000	1	0.03957	1.6777	0.0000;
	199	157	0.050000	0.020000	0.0000	20.0	0.0000	0.0000	1	0.05673	2.4807	0.0000;
	157	123	0.050000	0.020000	0.0000	20.0	0.0000	0.0000	1	0.05532	1.7062	0.0000;
	198	191	0.050000	0.020000	0.0000	20.0	0.0000	0.0000	1	0.03938	1.9355	0.0000;
	198	196	0.050000	0.020000	0.0000	20.0	0.0000	0.0000	1	0.05499	2.2820	0.0000;
	158	198	0.050000	0.020000	0.0000	20.0	0.0000	0.0000	1	0.01895	1.6326	0.0000;
	19	50	0.050000	0.020000	0.0000	20.0	0.0000	0.0000	1	0.03687	1.6242	0.0000;
	50	51	0.050000	0.020000	0.0000	20.0	0.0000	0.0000	1	0.04228	2.2310	0.0000;
	51	55	0.050000	0.020000	0.0000	20.0	0.0000	0.0000	1	0.03127	2.3027	0.0000;
	55	26	0.050000	0.020000	0.0000	20.0	0.0000	0.0000	1	0.01816	1.7786	0.0000;
	26	30	0.050000	0.020000	0.0000	20.0	0.0000	0.0000	1	0.05610	1.5859	0.0000;
	46	39	0.050000	0.020000	0.0000	20.0	0.0000	0.0000	1	0.04775	2.0237	0.0000;
	50	53	0.050000	0.020000	0.0000	20.0	0.0000	0.0000	1	0.02654	1.8239	0.0000;
	53	23	0.050000	0.020000	0.0000	20.0	0.0000	0.0000	1	0.01528	1.9901	0.0000;
	23	28	0.050000	0.020000	0.0000	20.0	0.0000	0.0000	1	0.04825	2.4716	0.0000;
	28	33	0.050000	0.020000	0.0000	20.0	0.0000	0.0000	1	0.05949	1.7840	0.0000;
	20	46	0.050000	0.020000	0.0000	20.0	0.0000	0.0000	1	0.04760	1.8167	0.0000;
	24	43	0.050000	0.020000	0.0000	20.0	0.0000	0.0000	1	0.01727	2.4006	0.0000;
	34	24	0.050000	0.020000	0.0000	20.0	0.0000	0.0000	1	0.01425	1.5843	0.0000;
	37	34	0.050000	0.020000	0.0000	20.0	0.0000	0.0000	1	0.02058	2.1713	0.0000;
	40	37	0.050000	0.020000	0.0000	20.0	0.0000	0.0000	1	0.01724	1.5277	0.0000;
	42	40	0.050000	0.020000	0.0000	20.0	0.0000	0.0000	1	0.01487	2.0821	0.0000;
	47	42	0.050000	0.020000	0.0000	20.0	0.0000	0.0000	1	0.04020	2.0440	0.0000;
	49	47	0.050000	0.020000	0.0000	20.0	0.0000	0.0000	1	0.04995	2.0581	0.0000;
	32	19	0.050000	0.020000	0.0000	20.0	0.0000	0.0000	1	0.03755	1.7461	0.0000;
	83	32	0.050000	0.020000	0.0000	20.0	0.0000	0.0000	1	0.01154	1.9953	0.0000;
	27	35	0.050000	0.020000	0.0000	20.0	0.0000	0.0000	1	0.03236	2.1597	0.0000;
	48	44	0.050000	0.020000	0.0000	20.0	0.0000	0.0000	1	0.02746	1.6961	0.0000;
	54	22	0.050000	0.020000	0.0000	20.0	0.0000	0.0000	1	0.04263	1.5732	0.0000;
	22	27	0.050000	0.020000	0.0000	20.0	0.0000	0.0000	1	0.02653	2.1752	0.0000;
	32	54	0.050000	0.020000	0.0000	20.0	0.0000	0.0000	1	0.05179	2.4616	0.0000;
	20	49	0.050000	0.020000	0.0000	20.0	0.0000	0.0000	1	0.03772	2.4844	0.0000;
	36	31	0.050000	0.020000	0.0000	20.0	0.0000	0.0000	1	0.01016	2.2989	0.0000;
	41	36	0.050000	0.020000	0.0000	20.0	0.0000	0.0000	1	0.01316	2.2662	0.0000;
	45	41	0.050000	0.020000	0.0000	20.0	0.0000	0.0000	1	0.02074	1.8322	0.0000;
	49	45	0.050000	0.020000	0.0000	20.0	0.0000	0.0000	1	0.04758	1.8832	0.0000;
	48	20	0.050000	0.020000	0.0000	20.0	0.0000	0.0000	1	0.05098	1.8034	0.0000;
	29	38	0.050000	0.020000	0.0000	20.0	0.0000	0.0000	1	0.01089	1.5194	0.0000;
	38	48	0.050000	0.020000	0.0000	20.0	0.0000	0.0000	1	0.05827	2.0902	0.0000;
	21	52	0.050000	0.020000	0.0000	20.0	0.0000	0.0000	1	0.03332	2.1865	0.0000;
	25	29	0.050000	0.020000	0.0000	20.0	0.0000	0.0000	1	0.02502	2.1988	0.0000;
	52	25	0.050000	0.020000	0.0000	20.0	0.0000	0.0000	1	0.01218	2.1755	0.0000;
	32	21	0.050000	0.020000	0.0000	20.0	0.0000	0.0000	1	0.02825	1.6699	0.0000;
	186	166	0.050000	0.020000	0.0000	20.0	0.0000	0.0000	1	0.04290	2.3903	0.0000;
	166	174	0.050000	0.020000	0.0000	20.0	0.0000	0.0000	1	0.02235	1.5827	0.0000;
	174	180	0.050000	0.020000	0.0000	20.0	0.0000	0.0000	1	0.05813	1.8663	0.0000;
	159	179	0.050000	0.020000	0.0000	20.0	0.0000	0.0000	1	0.03303	1.5832	0.0000;
	179	176	0.050000	0.020000	0.0000	20.0	0.0000	0.0000	1	0.01012	2.0783	0.0000;
	161	168	0.050000	0.020000	0.0000	20.0	0.0000	0.0000	1	0.04963	1.6262	0.0000;
	182	161	0.050000	0.020000	0.0000	20.0	0.0000	0.0000	1	0.05236	2.2722	0.0000;
	181	182	0.050000	0.020000	0.0000	20.0	0.0000	0.0000	1	0.02841	1.8724	0.0000;
	180	159	0.050000	0.020000	0.0000	20.0	0.0000	0.0000	1	0.02246	2.2360	0.0000;
	180	177	0.050000	0.020000	0.0000	20.0	0.0000	0.0000	1	0.03598	1.7430	0.0000;
	162	170	0.050000	0.020000	0.0000	20.0	0.0000	0.0000	1	0.05903	2.4283	0.0000;
	183	162	0.050000	0.020000	0.0000	20.0	0.0000	0.0000	1	0.01226	2.4216	0.0000;
	159	128	0.050000	0.020000	0.0000	20.0	0.0000	0.0000	1	0.05793	1.7646	0.0000;
	128	140	0.050000	0.020000	0.0000	20.0	0.0000	0.0000	1	0.04867	1.7019	0.0000;
	130	156	0.050000	0.020000	0.0000	20.0	0.0000	0.0000	1	0.03766	1.7540	0.0000;
	129	130	0.050000	0.020000	0.0000	20.0	0.0000	0.0000	1	0.03342	2.1593	0.0000;
	140	129	0.050000	0.020000	0.0000	20.0	0.0000	0.0000	1	0.02950	1.5156	0.0000;
	156	132	0.050000	0.020000	0.0000	20.0	0.0000	0.0000	1	0.04823	2.2585	0.0000;
	132	139	0.050000	0.020000	0.0000	20.0	0.0000	0.0000	1	0.01861	2.2318	0.0000;
	128	153	0.050000	0.020000	0.0000	20.0	0.0000	0.0000	1	0.04102	1.8688	0.0000;
	136	143	0.050000	0.020000	0.0000	20.0	0.0000	0.0000	1	0.03841	1.6289	0.0000;
	143	147	0.050000	0.020000	0.0000	20.0	0.0000	0.0000	1	0.05279	2.2770	0.0000;
	224	223	0.050000	0.020000	0.0000	20.0	0.0000	0.0000	1	0.05257	2.3897	0.0000;
	220	221	0.050000	0.020000	0.0000	20.0	0.0000	0.0000	1	0.01872	1.9773	0.0000;
	219	220	0.050000	0.020000	0.0000	20.0	0.0000	0.0000	1	0.03563	2.0362	0.0000;
	416	272	0.050000	0.020000	0.0000	20.0	0.0000	0.0000	1	0.05500	1.7531	0.0000;
	416	273	0.050000	0.020000	0.0000	20.0	0.0000	0.0000	1	0.04002	1.6014	0.0000;
	273	274	0.050000	0.020000	0.0000	20.0	0.0000	0.0000	1	0.05888	1.6187	0.0000;
	274	275	0.050000	0.020000	0.0000	20.0	0.0000	0.0000	1	0.03863	2.4396	0.0000;
	275	263	0.050000	0.020000	0.0000	20.0	0.0000	0.0000	1	0.01536	2.1176	0.0000;
	261	262	0.050000	0.020000	0.0000	20.0	0.0000	0.0000	1	0.01286	1.5145	0.0000;
	260	261	0.050000	0.020000	0.0000	20.0	0.0000	0.0000	1	0.03538	2.3839	0.0000;
	258	260	0.050000	0.020000	0.0000	20.0	0.0000	0.0000	1	0.01516	1.5821	0.0000;
	256	258	0.050000	0.020000	0.0000	20.0	0.0000	0.0000	1	0.05852	2.1080	0.0000;
	371	238	0.050000	0.020000	0.0000	20.0	0.0000	0.0000	1	0.03195	2.1200	0.0000;
	263	264	0.050000	0.020000	0.0000	20.0	0.0000	0.0000	1	0.01866	2.2657	0.0000;
	368	346	0.050000	0.020000	0.0000	20.0	0.0000	0.0000	1	0.05545	2.3497	0.0000;
	369	347	0.050000	0.020000	0.0000	20.0	0.0000	0.0000	1	0.03345	1.6983	0.0000;
	250	382	0.050000	0.020000	0.0000	20.0	0.0000	0.0000	1	0.02948	1.6722	0.0000;
	382	369	0.050000	0.020000	0.0000	20.0	0.0000	0.0000	1	0.01273	1.6566	0.0000;
	276	277	0.050000	0.020000	0.0000	20.0	0.0000	0.0000	1	0.04425	1.5555	0.0000;
	278	276	0.050000	0.020000	0.0000	20.0	0.0000	0.0000	1	0.05320	1.9345	0.0000;
	279	278	0.050000	0.020000	0.0000	20.0	0.0000	0.0000	1	0.02522	1.7348	0.0000;
	280	279	0.050000	0.020000	0.0000	20.0	0.0000	0.0000	1	0.05236	2.2371	0.0000;
	281	280	0.050000	0.020000	0.0000	20.0	0.0000	0.0000	1	0.03635	1.5073	0.0000;
	235	234	0.050000	0.020000	0.0000	20.0	0.0000	0.0000	1	0.02486	2.0572	0.0000;
	235	207	0.050000	0.020000	0.0000	20.0	0.0000	0.0000	1	0.01503	1.6746	0.0000;
	348	231	0.050000	0.020000	0.0000	20.0	0.0000	0.0000	1	0.05410	1.8188	0.0000;
	206	348	0.050000	0.020000	0.0000	20.0	0.0000	0.0000	1	0.03801	1.6825	0.0000;
	379	228	0.050000	0.020000	0.0000	20.0	0.0000	0.0000	1	0.01391	2.2401	0.0000;
	228	227	0.050000	0.020000	0.0000	20.0	0.0000	0.0000	1	0.02432	1.8408	0.0000;
	231	292	0.050000	0.020000	0.0000	20.0	0.0000	0.0000	1	0.03555	1.8663	0.0000;
	292	235	0.050000	0.020000	0.0000	20.0	0.0000	0.0000	1	0.04425	1.9012	0.0000;
	220	343	0.050000	0.020000	0.0000	20.0	0.0000	0.0000	1	0.04024	2.3954	0.0000;
	303	305	0.050000	0.020000	0.0000	20.0	0.0000	0.0000	1	0.02470	2.4553	0.0000;
	377	376	0.050000	0.020000	0.0000	20.0	0.0000	0.0000	1	0.01902	2.4438	0.0000;
	303	377	0.050000	0.020000	0.0000	20.0	0.0000	0.0000	1	0.04579	1.6289	0.0000;
	300	304	0.050000	0.020000	0.0000	20.0	0.0000	0.0000	1	0.03358	2.0757	0.0000;
	309	314	0.050000	0.020000	0.0000	20.0	0.0000	0.0000	1	0.04662	2.4923	0.0000;
	304	309	0.050000	0.020000	0.0000	20.0	0.0000	0.0000	1	0.01478	1.9072	0.0000;
	369	89	0.050000	0.020000	0.0000	20.0	0.0000	0.0000	1	0.01242	1.5969	0.0000;
	243	84	0.050000	0.020000	0.0000	20.0	0.0000	0.0000	1	0.04500	2.0935	0.0000;
	351	413	0.050000	0.020000	0.0000	20.0	0.0000	0.0000	1	0.01622	1.9700	0.0000;
	413	384	0.050000	0.020000	0.0000	20.0	0.0000	0.0000	1	0.04468	2.4252	0.0000;
	413	400	0.050000	0.020000	0.0000	20.0	0.0000	0.0000	1	0.01198	2.3201	0.0000;
	400	385	0.050000	0.020000	0.0000	20.0	0.0000	0.0000	1	0.05729	1.9178	0.0000;
	400	401	0.050000	0.020000	0.0000	20.0	0.0000	0.0000	1	0.04110	2.3127	0.0000;
	401	386	0.050000	0.020000	0.0000	20.0	0.0000	0.0000	1	0.01798	1.6551	0.0000;
	401	402	0.050000	0.020000	0.0000	20.0	0.0000	0.0000	1	0.05110	1.5309	0.0000;
	402	387	0.050000	0.020000	0.0000	20.0	0.0000	0.0000	1	0.03561	2.2440	0.0000;
	402	403	0.050000	0.020000	0.0000	20.0	0.0000	0.0000	1	0.05898	2.4360	0.0000;
	367	344	0.050000	0.020000	0.0000	20.0	0.0000	0.0000	1	0.01104	1.5993	0.0000;
	344	345	0.050000	0.020000	0.0000	20.0	0.0000	0.0000	1	0.02003	1.8900	0.0000;
	344	368	0.050000	0.020000	0.0000	20.0	0.0000	0.0000	1	0.03789	2.2257	0.0000;
	403	399	0.050000	0.020000	0.0000	20.0	0.0000	0.0000	1	0.02774	2.1045	0.0000;
	71	73	0.050000	0.020000	0.0000	20.0	0.0000	0.0000	1	0.03311	2.2165	0.0000;
	71	75	0.050000	0.020000	0.0000	20.0	0.0000	0.0000	1	0.04945	1.7802	0.0000;
	80	74	0.050000	0.020000	0.0000	20.0	0.0000	0.0000	1	0.03701	2.2172	0.0000;
	75	80	0.050000	0.020000	0.0000	20.0	0.0000	0.0000	1	0.04899	2.2998	0.0000;
	72	71	0.050000	0.020000	0.0000	20.0	0.0000	0.0000	1	0.05363	2.4848	0.0000;
	72	79	0.050000	0.020000	0.0000	20.0	0.0000	0.0000	1	0.05114	2.3445	0.0000;
	76	72	0.050000	0.020000	0.0000	20.0	0.0000	0.0000	1	0.04647	1.6248	0.0000;
	77	76	0.050000	0.020000	0.0000	20.0	0.0000	0.0000	1	0.03748	2.4283	0.0000;
	82	78	0.050000	0.020000	0.0000	20.0	0.0000	0.0000	1	0.05400	2.3432	0.0000;
	79	81	0.050000	0.020000	0.0000	20.0	0.0000	0.0000	1	0.02651	2.1443	0.0000;
	78	77	0.050000	0.020000	0.0000	20.0	0.0000	0.0000	1	0.02577	1.6721	0.0000;
	89	82	0.050000	0.020000	0.0000	20.0	0.0000	0.0000	1	0.03972	2.2727	0.0000;
	417	122	0.050000	0.020000	0.0000	20.0	0.0000	0.0000	1	0.01676	1.5857	0.0000;
	119	93	0.050000	0.020000	0.0000	20.0	0.0000	0.0000	1	0.05657	2.2739	0.0000;
	122	119	0.050000	0.020000	0.0000	20.0	0.0000	0.0000	1	0.05999	2.3306	0.0000;
	114	113	0.050000	0.020000	0.0000	20.0	0.0000	0.0000	1	0.01991	1.7768	0.0000;
	111	114	0.050000	0.020000	0.0000	20.0	0.0000	0.0000	1	0.01800	2.1918	0.0000;
	93	112	0.050000	0.020000	0.0000	20.0	0.0000	0.0000	1	0.05122	1.7287	0.0000;
	105	94	0.050000	0.020000	0.0000	20.0	0.0000	0.0000	1	0.05667	2.2358	0.0000;
	94	111	0.050000	0.020000	0.0000	20.0	0.0000	0.0000	1	0.03107	2.4265	0.0000;
	93	110	0.050000	0.020000	0.0000	20.0	0.0000	0.0000	1	0.03870	1.6008	0.0000;
	110	105	0.050000	0.020000	0.0000	20.0	0.0000	0.0000	1	0.01579	1.9575	0.0000;
	118	120	0.050000	0.020000	0.0000	20.0	0.0000	0.0000	1	0.05024	2.0648	0.0000;
	93	118	0.050000	0.020000	0.0000	20.0	0.0000	0.0000	1	0.03632	2.0612	0.0000;
	117	83	0.050000	0.020000	0.0000	20.0	0.0000	0.0000	1	0.04158	1.8193	0.0000;
	118	121	0.050000	0.020000	0.0000	20.0	0.0000	0.0000	1	0.05868	1.7120	0.0000;
...
];

branch(:, 13:23) = 0;

%%-----  OPF Data  -----%%
gencost = [ 2 1500 0 3 0.11 5 150; ];
w_gen = 1.05 * ones(size(gen, 1), 1);

%% 数据转换与标幺化计算
rate = 1.00;
bus(:,3) = (rate .* bus(:,3)) / 1000; % kW -> MW
bus(:,4) = (rate .* bus(:,4)) / 1000; % kVAr -> MVAR

Vbase = bus(1, 10); 
Zbase = (Vbase^2) / baseMVA;
branch(:, 3) = branch(:, 3) / Zbase; % R p.u.
branch(:, 4) = branch(:, 4) / Zbase; % X p.u.

gen(:,2:5) = rate.*gen(:,2:5);
gen(:,9:10) = rate.*gen(:,9:10);

bus(:,13:32) = 0;
busPmax = zeros(size(bus,1),1); busPmin = zeros(size(bus,1),1); busPG = zeros(size(bus,1),1);
busQmax = zeros(size(bus,1),1); busQmin = zeros(size(bus,1),1); busQG = zeros(size(bus,1),1);

gen(:,11) = 1-8760./(gen(:,7).*gen(:,8)+8760);

for i=1:size(bus,1)
    genindex = find(gen(:,1) == i);
    if(~isempty(genindex))
        busPmax(i) = sum(gen(genindex,2)); busPmin(i) = sum(gen(genindex,3)); busPG(i)   = sum(gen(genindex,9));
        busQmax(i) = sum(gen(genindex,4)); busQmin(i) = sum(gen(genindex,5)); busQG(i)   = sum(gen(genindex,10));
    end
end

bus(:,13) = busPmax; bus(:,14) = busPmin; bus(:,15) = busQmax;
bus(:,16) = busQmin; bus(:,17) = busPG; bus(:,18) = busQG;

branch(:,13) = 1-8760./(branch(:,10).*branch(:,11)+8760);
branch(:,14:23) = 0.0;

PBase = prod(1-gen(:,11)) * prod(1-branch(:,13));
PFBase = sum(gen(:,7)) + sum(branch(:,10));

end
